Version 4.1
SHEET 1 1640 1884
WIRE 16 -160 16 -272
WIRE 496 -160 432 -160
WIRE 656 -160 560 -160
WIRE 800 -160 656 -160
WIRE 80 -112 80 -144
WIRE 128 -112 80 -112
WIRE 176 -112 128 -112
WIRE 288 -112 256 -112
WIRE 432 -112 432 -160
WIRE 432 -112 288 -112
WIRE 16 -48 16 -160
WIRE 16 -48 -48 -48
WIRE -144 0 -192 0
WIRE -64 0 -64 -160
WIRE -64 0 -144 0
WIRE 80 0 80 -112
WIRE 80 0 32 0
WIRE 128 32 128 -112
WIRE 288 32 288 -112
WIRE 704 48 704 -16
WIRE 848 48 784 48
WIRE 704 96 704 48
WIRE 704 96 672 96
WIRE 528 144 480 144
WIRE 64 160 -64 160
WIRE 480 160 480 144
WIRE 480 160 352 160
WIRE 528 256 528 144
WIRE 208 336 208 288
WIRE 832 720 768 720
WIRE 832 896 832 720
WIRE 704 976 608 976
WIRE 784 976 704 976
WIRE 912 992 832 992
WIRE 912 1088 912 992
WIRE 1136 1088 912 1088
WIRE 1312 1088 1136 1088
WIRE 704 1120 704 976
WIRE 848 1120 704 1120
WIRE 912 1120 912 1088
WIRE 704 1168 704 1120
FLAG 208 336 0
FLAG 80 -208 0
FLAG 608 256 0
FLAG 656 -224 0
FLAG 672 192 0
FLAG -272 0 0
FLAG -64 -272 0
FLAG -64 240 0
FLAG 848 48 3v3
FLAG 800 -160 LED_SW
FLAG 704 -16 LED_SENSE
FLAG 1456 -416 LED_SW
FLAG 1520 -416 LED_RET
FLAG 912 368 LED_RET
FLAG -144 0 3v3
FLAG 688 720 0
FLAG 1136 1152 0
FLAG 528 976 0
FLAG 704 1248 0
FLAG 1312 1088 LDO_IN
SYMBOL PowerProducts\\LT1615 208 160 R0
SYMATTR InstName U1
SYMBOL schottky 496 -144 R270
WINDOW 0 32 32 VTop 2
WINDOW 3 0 32 VBottom 2
SYMATTR InstName D1
SYMATTR Value MBR0540
SYMBOL ind 160 -96 R270
WINDOW 0 32 56 VTop 2
WINDOW 3 5 56 VBottom 2
SYMATTR InstName L1
SYMATTR Value 10µ
SYMATTR SpiceLine Ipk=1.1 Rser=0.42 Rpar=7751.58 Cpar=0
SYMBOL cap 64 -208 R0
SYMATTR InstName C1
SYMATTR Value 4.7µ
SYMBOL res 32 -176 R90
WINDOW 0 0 56 VBottom 2
WINDOW 3 32 56 VTop 2
SYMATTR InstName R1
SYMATTR Value 10k
SYMBOL res 800 32 R90
WINDOW 0 0 56 VBottom 2
WINDOW 3 32 56 VTop 2
SYMATTR InstName R2
SYMATTR Value 10k
SYMBOL res 624 240 R90
WINDOW 0 0 56 VBottom 2
WINDOW 3 32 56 VTop 2
SYMATTR InstName R3
SYMATTR Value 82
SYMBOL res 624 128 R90
WINDOW 0 0 56 VBottom 2
WINDOW 3 32 56 VTop 2
SYMATTR InstName R4
SYMATTR Value 10k
SYMBOL cap 640 -224 R0
SYMATTR InstName C2
SYMATTR Value 4.7µ
SYMBOL npn 608 96 R0
SYMATTR InstName Q1
SYMBOL pmos 32 -48 R90
SYMATTR InstName M1
SYMATTR Value irlml6402
SYMATTR Prefix X
SYMBOL voltage -176 0 R90
WINDOW 0 -32 56 VBottom 2
WINDOW 3 32 56 VTop 2
SYMATTR InstName 3v3_s
SYMATTR Value 3.3
SYMBOL voltage 32 -272 R90
WINDOW 0 -32 56 VBottom 2
WINDOW 3 32 56 VTop 2
WINDOW 123 0 0 Left 0
WINDOW 39 0 0 Left 0
SYMATTR InstName V2
SYMATTR Value 0
SYMBOL voltage -64 144 R0
WINDOW 123 0 0 Left 0
WINDOW 39 0 0 Left 0
SYMATTR InstName V3
SYMATTR Value PULSE(0 3.3v 0 1u 1u 5m 10m)
SYMBOL LED 1456 -400 R270
WINDOW 0 72 32 VTop 2
WINDOW 3 0 32 VBottom 2
WINDOW 39 44 32 VTop 2
SYMATTR InstName D8
SYMATTR Value led_s
SYMATTR SpiceLine N=7
SYMBOL pmos 784 896 R0
SYMATTR InstName M2
SYMATTR Value irlml6402
SYMATTR Prefix X
SYMBOL voltage 784 720 R90
WINDOW 123 0 0 Left 0
WINDOW 39 0 0 Left 0
SYMATTR InstName V1
SYMATTR Value 3.3
SYMBOL voltage 624 976 R90
WINDOW 0 -32 56 VBottom 2
WINDOW 3 32 56 VTop 2
WINDOW 123 0 0 Left 0
WINDOW 39 0 0 Left 0
SYMATTR InstName V4
SYMATTR Value PULSE(0 5v 0 1u 1u 5m 10m)
SYMBOL schottky 848 1136 R270
WINDOW 0 32 32 VTop 2
WINDOW 3 0 32 VBottom 2
SYMATTR InstName D2
SYMATTR Value MBR0540
SYMBOL res 688 1152 R0
SYMATTR InstName R5
SYMATTR Value 10k
SYMBOL cap 1120 1088 R0
SYMATTR InstName C3
SYMATTR Value 22µ
TEXT -1488 328 Left 2 !.SUBCKT irlml6402 1 2 3\n**************************************\n*      Model Generated by MODPEX     *\n*Copyright(c) Symmetry Design Systems*\n*         All Rights Reserved        *\n*    UNPUBLISHED LICENSED SOFTWARE   *\n*   Contains Proprietary Information *\n*      Which is The Property of      *\n*     SYMMETRY OR ITS LICENSORS      *\n*Commercial Use or Resale Restricted *\n*   by Symmetry License Agreement    *\n**************************************\n* Model generated on Sep 25, 06\n* MODEL FORMAT: SPICE3\n* Symmetry POWER MOS Model (Version 1.0)\n* External Node Designations\n* Node 1 -> Drain\n* Node 2 -> Gate\n* Node 3 -> Source\nM1 9 7 8 8 MM L=100u W=100u\n.MODEL MM PMOS LEVEL=1 IS=1e-32\n+VTO=-1 LAMBDA=0.0111358 KP=12.788\n+CGSO=5.36099e-06 CGDO=5.54234e-08\nRS 8 3 0.0246704\nD1 1 3 MD\n.MODEL MD D IS=2.03395e-08 RS=0.0432758 N=1.5 BV=20\n+IBV=0.00025 EG=1 XTI=4 TT=1e-07\n+CJO=1.11974e-10 VJ=0.5 M=0.3 FC=0.5\nRDS 3 1 5e+07\nRD 9 1 0.0001\nRG 2 7 29.2227\nD2 5 4 MD1\n* Default values used in MD1:\n*   RS=0 EG=1.11 XTI=3.0 TT=0\n*   BV=infinite IBV=1mA\n.MODEL MD1 D IS=1e-32 N=50\n+CJO=1.68841e-10 VJ=1.50027 M=0.3 FC=1e-08\nD3 5 0 MD2\n* Default values used in MD2:\n*   EG=1.11 XTI=3.0 TT=0 CJO=0\n*   BV=infinite IBV=1mA\n.MODEL MD2 D IS=1e-10 N=0.4 RS=3e-06\nRL 5 10 1\nFI2 7 9 VFI2 -1\nVFI2 4 0 0\nEV16 10 0 9 7 1\nCAP 11 10 9.68769e-10\nFI1 7 9 VFI1 -1\nVFI1 11 6 0\nRCAP 6 10 1\nD4 6 0 MD3\n* Default values used in MD3:\n*   EG=1.11 XTI=3.0 TT=0 CJO=0\n*   RS=0 BV=infinite IBV=1mA\n.MODEL MD3 D IS=1e-10 N=0.4\n.ENDS irlml6402
TEXT -216 664 Left 2 !.tran 50m startup
TEXT 1096 -304 Left 2 !.model led_s D(Is=1p N=3.4 Rs=5)
